<?xml version="1.0" encoding="UTF-8"?>

<!-- generated on 2026-07-11T15:06:01.813342+01:00 by Eclipse SUMO netconvert 1.25.0
<netconvertConfiguration xmlns:xsi="http://www.w3.org/2001/XMLSchema-instance" xsi:noNamespaceSchemaLocation="http://sumo.dlr.de/xsd/netconvertConfiguration.xsd">

    <input>
        <node-files value="/home/karthik/Desktop/Karthikeya/sumo_tabular_dqn/results/sumo_tabular_median50/sumo_scenario/straight.nod.xml"/>
        <edge-files value="/home/karthik/Desktop/Karthikeya/sumo_tabular_dqn/results/sumo_tabular_median50/sumo_scenario/straight.edg.xml"/>
    </input>

    <output>
        <output-file value="/home/karthik/Desktop/Karthikeya/sumo_tabular_dqn/results/sumo_tabular_median50/sumo_scenario/straight.net.xml"/>
    </output>

</netconvertConfiguration>
-->

<net version="1.20" junctionCornerDetail="5" limitTurnSpeed="5.50" xmlns:xsi="http://www.w3.org/2001/XMLSchema-instance" xsi:noNamespaceSchemaLocation="http://sumo.dlr.de/xsd/net_file.xsd">

    <location netOffset="0.00,0.00" convBoundary="0.00,0.00,1000.00,0.00" origBoundary="0.00,0.00,1000.00,0.00" projParameter="!"/>

    <edge id="road" from="n0" to="n1" priority="-1">
        <lane id="road_0" index="0" speed="25.00" length="1000.00" shape="0.00,-1.60 1000.00,-1.60"/>
    </edge>

    <junction id="n0" type="dead_end" x="0.00" y="0.00" incLanes="" intLanes="" shape="0.00,0.00 0.00,-3.20"/>
    <junction id="n1" type="dead_end" x="1000.00" y="0.00" incLanes="road_0" intLanes="" shape="1000.00,-3.20 1000.00,0.00"/>

</net>
