Captured: 2026-07-11T15:52:46+02:00
Conda environment: base

Python 3.13.9
conda 25.11.1

Eclipse SUMO sumo 1.25.0
 Build features: Linux-6.8.0-90-generic x86_64 GNU 15.2.0 None FMI Proj GUI Intl SWIG Eigen GDAL FFmpeg OSG GL2PS
 Copyright (C) 2001-2025 German Aerospace Center (DLR) and others; https://sumo.dlr.de

Eclipse SUMO sumo 1.25.0 is part of SUMO.
This program and the accompanying materials
are made available under the terms of the Eclipse Public License v2.0
which accompanies this distribution, and is available at
http://www.eclipse.org/legal/epl-v20.html
This program may also be made available under the following Secondary
Licenses when the conditions for such availability set forth in the Eclipse
Public License 2.0 are satisfied: GNU General Public License, version 2
or later which is available at
https://www.gnu.org/licenses/old-licenses/gpl-2.0-standalone.html
SPDX-License-Identifier: EPL-2.0 OR GPL-2.0-or-later

Eclipse SUMO netconvert 1.25.0
 Build features: Linux-6.8.0-90-generic x86_64 GNU 15.2.0 None FMI Proj GUI Intl SWIG Eigen GDAL FFmpeg OSG GL2PS
 Copyright (C) 2001-2025 German Aerospace Center (DLR) and others; https://sumo.dlr.de

Eclipse SUMO netconvert 1.25.0 is part of SUMO.
This program and the accompanying materials
are made available under the terms of the Eclipse Public License v2.0
which accompanies this distribution, and is available at
http://www.eclipse.org/legal/epl-v20.html
This program may also be made available under the following Secondary
Licenses when the conditions for such availability set forth in the Eclipse
Public License 2.0 are satisfied: GNU General Public License, version 2
or later which is available at
https://www.gnu.org/licenses/old-licenses/gpl-2.0-standalone.html
SPDX-License-Identifier: EPL-2.0 OR GPL-2.0-or-later

Linux skanda 7.0.0-27-generic #27-Ubuntu SMP PREEMPT_DYNAMIC Thu Jun 18 19:13:49 UTC 2026 x86_64 GNU/Linux
