<edges>
    <edge id="road" from="n0" to="n1" numLanes="1" speed="25.0"/>
</edges>
